testData/tamu2000/pfcases_100_zone2326/Equ_tx2000_hr_5106_mod_v23_zone23_26_pslf.raw
0  100.000 
THIS IS A SYNTHETIC POWER SYSTEM MODEL THAT DOES NOT REPRESE
DATA RESEARCH PROJECT AND CONTAINS NO CEII.
1004,  2,  47.551,  -18.132,  0.000,  0.000,  1,  1.02431,  -72.2866,  'O DONNEL',  230.00,  9
1009,  2,  3.927,  -2.507,  0.000,  0.000,  1,  1.00647,  -65.8035,  'IRAAN 2 ',  13.800,  9
1012,  1,  -1.118,  -13.573,  0.000,  0.000,  1,  1.01563,  -81.6475,  'SANDERSO',  115.00,  9
1021,  2,  24.972,  -14.917,  0.000,  0.000,  1,  1.00846,  -68.7561,  'BIG SPRI',  13.800,  9
1023,  2,  27.018,  -3.690,  0.000,  0.000,  1,  1.01000,  -65.7900,  'O DONNEL',  13.800,  9
1026,  2,  29.767,  -10.184,  0.000,  0.000,  1,  1.00418,  -67.3631,  'BIG SPRI',  13.800,  9
1033,  2,  11.809,  -6.023,  0.000,  0.000,  1,  1.00000,  -68.5888,  'MCCAMEY ',  230.00,  9
1035,  2,  42.707,  -10.494,  0.000,  0.000,  1,  1.00033,  -67.3517,  'BIG SPRI',  13.800,  9
1039,  2,  24.526,  -6.076,  0.000,  0.000,  1,  1.00000,  -62.5647,  'FORT STO',  22.000,  9
1042,  2,  41.979,  -4.512,  0.000,  0.000,  1,  1.00000,  -64.5432,  'FORSAN 1',  13.800,  9
1046,  1,  10.390,  -12.843,  0.000,  0.000,  1,  1.03002,  -78.9476,  'OZONA 0 ',  115.00,  9
1048,  2,  111.899,  -0.088,  0.000,  0.000,  1,  1.00000,  -48.8498,  'MONAHANS',  18.000,  9
1049,  2,  105.221,  13.666,  0.000,  0.000,  1,  1.00000,  -41.6850,  'MONAHANS',  18.000,  9
1053,  2,  58.988,  -13.527,  0.000,  0.000,  1,  1.00409,  -62.9740,  'MONAHANS',  230.00,  9
1057,  2,  53.323,  -16.391,  0.000,  0.000,  1,  1.00620,  -67.6457,  'LENORAH ',  18.000,  9
1066,  2,  40.180,  -6.664,  0.000,  0.000,  1,  1.00000,  -64.5947,  'BIG SPRI',  13.800,  9
1070,  2,  5.108,  -3.053,  0.000,  0.000,  1,  1.04000,  -65.8513,  'IRAAN 1 ',  13.800,  9
1072,  3,  53.279,  1.311,  0.000,  0.000,  1,  1.01000,  -62.4756,  'ODESSA 1',  18.000,  9
1073,  2,  37.503,  0.528,  0.000,  0.000,  1,  1.01000,  -59.9868,  'ODESSA 1',  18.000,  9
1074,  2,  38.759,  2.438,  0.000,  0.000,  1,  1.01000,  -60.4280,  'ODESSA 1',  18.000,  9
1075,  2,  45.850,  2.296,  0.000,  0.000,  1,  1.01000,  -62.3842,  'ODESSA 1',  18.000,  9
1076,  2,  92.688,  -2.842,  0.000,  0.000,  1,  1.01000,  -66.3298,  'ODESSA 1',  18.000,  9
1077,  2,  39.718,  2.078,  0.000,  0.000,  1,  1.01000,  -60.7501,  'ODESSA 1',  18.000,  9
1081,  2,  96.340,  -40.941,  0.000,  0.000,  1,  1.01000,  -66.5454,  'ODESSA 1',  230.00,  9
1082,  2,  48.163,  -25.432,  0.000,  0.000,  1,  1.01326,  -65.1841,  'FORT STO',  115.00,  9
1084,  2,  99.418,  -33.152,  0.000,  0.000,  1,  1.03243,  -72.4315,  'BIG SPRI',  115.00,  9
2004,  2,  133.694,  -14.309,  0.000,  0.000,  2,  1.02000,  -92.8141,  'SAVOY 2 ',  13.800,  11
2005,  2,  116.390,  -12.799,  0.000,  0.000,  2,  1.02000,  -92.6533,  'SAVOY 3 ',  13.800,  11
2006,  2,  77.439,  -7.452,  0.000,  0.000,  2,  1.02000,  -92.0307,  'SAVOY 4 ',  13.800,  11
2013,  2,  5.965,  -12.096,  0.000,  0.000,  2,  1.04327,  -70.0762,  'PANHANDL',  18.000,  10
2019,  2,  12.334,  32.199,  0.000,  0.000,  2,  1.04000,  -71.2271,  'PANHANDL',  20.000,  10
2024,  2,  96.483,  -6.418,  0.000,  0.000,  2,  1.02000,  -91.1757,  'PARIS 2 ',  13.800,  11
2042,  2,  7.808,  -2.100,  0.000,  0.000,  2,  1.03036,  -65.3114,  'PANHANDL',  18.000,  10
2057,  3,  181.888,  -68.861,  0.000,  0.000,  2,  0.99000,  -85.5998,  'WICHITA ',  18.000,  11
2059,  2,  4.465,  -1.003,  0.000,  0.000,  2,  1.02921,  -64.4070,  'WHITE DE',  13.800,  10
2062,  2,  72.495,  -28.916,  0.000,  0.000,  2,  1.02000,  -83.0318,  'VERNON 1',  18.000,  10
2071,  2,  25.981,  -6.948,  0.000,  0.000,  2,  1.00000,  -85.3603,  'ARCHER 2',  18.000,  11
2078,  2,  75.248,  -22.027,  0.000,  0.000,  2,  1.02000,  -96.9643,  'MUENSTER',  13.800,  11
2095,  2,  4.313,  -1.254,  0.000,  0.000,  2,  1.03311,  -67.0270,  'PANHANDL',  13.800,  10
2100,  2,  14.711,  9.707,  0.000,  0.000,  2,  1.02108,  -70.0839,  'RALLS 1 ',  18.000,  10
2103,  2,  181.732,  -17.191,  0.000,  0.000,  2,  1.01840,  -93.7939,  'SHERMAN ',  20.000,  11
2104,  2,  136.967,  -12.426,  0.000,  0.000,  2,  1.01725,  -93.6210,  'SHERMAN ',  20.000,  11
2105,  2,  85.528,  -9.784,  0.000,  0.000,  2,  1.01460,  -93.1928,  'SHERMAN ',  20.000,  11
2115,  2,  65.060,  -5.581,  0.000,  0.000,  2,  1.01439,  -89.7713,  'PARIS 1 ',  13.800,  11
2116,  2,  116.761,  -9.020,  0.000,  0.000,  2,  1.01838,  -91.1357,  'PARIS 1 ',  13.800,  11
2117,  2,  59.616,  -4.785,  0.000,  0.000,  2,  1.01227,  -89.3217,  'PARIS 1 ',  13.800,  11
2118,  2,  56.517,  -4.492,  0.000,  0.000,  2,  1.01118,  -88.9627,  'PARIS 1 ',  13.800,  11
2119,  2,  93.425,  -7.772,  0.000,  0.000,  2,  1.01743,  -90.8148,  'PARIS 1 ',  13.800,  11
2120,  2,  56.760,  -4.686,  0.000,  0.000,  2,  1.01181,  -89.1060,  'PARIS 1 ',  13.800,  11
2123,  2,  29.911,  -14.000,  0.000,  0.000,  2,  1.03919,  -67.1461,  'PANHANDL',  161.00,  10
2127,  2,  207.530,  -173.851,  0.000,  0.000,  2,  1.05308,  -74.1757,  'MIAMI 0 ',  500.00,  10
3001,  1,  0.000,  0.000,  0.000,  0.000,  3,  0.99470,  -101.5500,  'KERRVILL',  230.00,  28
3002,  1,  0.000,  0.000,  0.000,  0.000,  3,  0.97729,  -105.4684,  'KERRVILL',  115.00,  28
3005,  1,  0.000,  0.000,  0.000,  0.000,  3,  0.92016,  -118.3729,  'LEAKEY 0',  115.00,  28
3008,  1,  5.168,  5.766,  0.000,  0.000,  3,  1.01715,  -89.4527,  'COLEMAN ',  115.00,  27
3009,  1,  0.000,  0.000,  0.000,  0.000,  3,  1.02661,  -85.4237,  'SONORA 0',  115.00,  28
3010,  1,  0.000,  0.000,  0.000,  0.000,  3,  0.95480,  -117.3258,  'CAMP WOO',  115.00,  28
3011,  1,  0.000,  0.000,  0.000,  0.000,  3,  0.97035,  -109.8149,  'LLANO 0 ',  115.00,  28
3012,  1,  0.000,  0.000,  0.000,  0.000,  3,  0.95873,  -110.8549,  'WILLOW C',  115.00,  28
3014,  1,  0.000,  0.000,  0.000,  0.000,  3,  1.00885,  -99.8288,  'KINGSLAN',  115.00,  28
3017,  2,  17.345,  3.440,  0.000,  0.000,  3,  1.01000,  -76.3470,  'BLACKWEL',  18.000,  27
3018,  1,  -14.950,  -6.828,  0.000,  0.000,  3,  1.02857,  -83.3964,  'CHRISTOV',  230.00,  27
3019,  1,  140.516,  -25.162,  0.000,  0.000,  3,  1.03002,  -84.8368,  'CHRISTOV',  115.00,  27
3020,  2,  0.000,  0.000,  0.000,  0.000,  3,  1.03000,  -81.2688,  'CHRISTOV',  13.800,  27
3024,  1,  0.000,  0.000,  0.000,  0.000,  3,  1.02706,  -85.3506,  'ELDORADO',  115.00,  28
3025,  1,  0.000,  0.000,  0.000,  0.000,  3,  1.01436,  -93.9432,  'SAN SABA',  115.00,  28
3028,  2,  52.796,  7.290,  0.000,  0.000,  3,  1.04000,  -84.3902,  'ABILENE ',  18.000,  27
3029,  1,  0.000,  0.000,  0.000,  0.000,  3,  1.02040,  -98.7358,  'LOMETA 0',  115.00,  28
3034,  2,  28.726,  2.923,  0.000,  0.000,  3,  1.03000,  -70.3617,  'SNYDER 1',  22.000,  27
3035,  1,  0.000,  0.000,  0.000,  0.000,  3,  1.01689,  -93.8847,  'CHEROKEE',  115.00,  28
3036,  1,  0.000,  0.000,  0.000,  0.000,  3,  1.01731,  -92.2321,  'RICHLAND',  115.00,  28
3039,  2,  31.508,  -2.851,  0.000,  0.000,  3,  1.04000,  -76.0318,  'ROSCOE 2',  13.800,  27
3045,  2,  7.109,  -0.967,  0.000,  0.000,  3,  1.04000,  -74.1717,  'SILVER 4',  13.800,  27
3048,  2,  139.039,  -415.389,  0.000,  0.000,  3,  1.03671,  -85.6725,  'ROSCOE 5',  500.00,  27
3050,  1,  -0.049,  -65.737,  0.000,  0.000,  3,  1.00572,  -88.3140,  'DEL RIO ',  230.00,  28
3051,  1,  -0.007,  -19.677,  0.000,  0.000,  3,  0.99196,  -90.4666,  'DEL RIO ',  115.00,  28
3052,  1,  0.000,  0.000,  0.000,  0.000,  3,  0.95074,  -113.3841,  'HUNT 0  ',  115.00,  28
3055,  2,  41.355,  0.689,  0.000,  0.000,  3,  1.04000,  -78.0041,  'WINGATE ',  13.800,  27
3056,  2,  33.366,  2.507,  0.000,  0.000,  3,  1.04000,  -76.6792,  'WINGATE ',  13.800,  27
3057,  2,  34.095,  2.205,  0.000,  0.000,  3,  1.04000,  -76.7636,  'WINGATE ',  13.800,  27
3060,  2,  11.734,  -0.123,  0.000,  0.000,  3,  1.04000,  -72.4620,  'STERLING',  18.000,  27
3061,  2,  13.053,  -0.119,  0.000,  0.000,  3,  1.04000,  -73.5760,  'STERLING',  18.000,  27
3062,  2,  13.665,  -3.352,  0.000,  0.000,  3,  1.04000,  -74.9551,  'STERLING',  18.000,  27
3063,  2,  15.672,  -0.542,  0.000,  0.000,  3,  1.04000,  -74.3614,  'STERLING',  18.000,  27
3065,  2,  -0.710,  -5.483,  0.000,  0.000,  3,  1.01141,  -73.1112,  'ROSCOE 4',  18.000,  27
3066,  1,  0.000,  0.000,  0.000,  0.000,  3,  1.01971,  -93.4370,  'BRADY 0 ',  115.00,  28
3068,  2,  26.991,  1.734,  0.000,  0.000,  3,  1.04000,  -76.1063,  'TRENT 1 ',  20.000,  27
3071,  2,  8.755,  -2.549,  0.000,  0.000,  3,  1.00660,  -76.2626,  'NOLAN 1 ',  24.000,  27
3073,  1,  0.000,  0.000,  0.000,  0.000,  3,  0.95949,  -118.7388,  'BRACKETT',  115.00,  28
3074,  2,  0.000,  0.000,  0.000,  0.000,  3,  0.97265,  -117.3630,  'BRACKETT',  13.800,  28
3075,  1,  0.000,  0.000,  0.000,  0.000,  3,  1.01653,  -92.4601,  'MASON 0 ',  115.00,  28
3076,  1,  0.000,  0.000,  0.000,  0.000,  3,  0.95690,  -118.4340,  'BRACKETT',  115.00,  28
3081,  2,  19.212,  -2.065,  0.000,  0.000,  3,  1.04000,  -74.1206,  'HERMLEIG',  20.000,  27
3084,  2,  18.068,  -8.298,  0.000,  0.000,  3,  1.00000,  -74.7368,  'MERKEL 1',  13.800,  27
3087,  2,  11.329,  0.122,  0.000,  0.000,  3,  1.00299,  -71.4002,  'LORAINE ',  13.200,  27
3092,  2,  31.472,  6.967,  0.000,  0.000,  3,  1.04000,  -79.9187,  'ABILENE ',  13.800,  27
3093,  1,  0.000,  0.000,  0.000,  0.000,  3,  0.95274,  -116.0816,  'ROCKSPRI',  115.00,  28
3095,  2,  23.148,  6.721,  0.000,  0.000,  3,  1.04000,  -76.5921,  'MERKEL 2',  18.000,  27
3098,  2,  12.607,  -0.983,  0.000,  0.000,  3,  1.04000,  -67.9900,  'FLUVANNA',  13.800,  27
3101,  1,  0.000,  0.000,  0.000,  0.000,  3,  1.01364,  -94.5351,  'BUCHANAN',  115.00,  28
3104,  1,  0.000,  0.000,  0.000,  0.000,  3,  1.01282,  -93.9285,  'BUCHANAN',  115.00,  28
3105,  1,  -9.108,  0.740,  0.000,  0.000,  3,  1.01298,  -93.2619,  'BUCHANAN',  13.200,  28
3106,  3,  0.000,  0.000,  0.000,  0.000,  3,  1.00000,  -87.8102,  'BUCHANAN',  13.200,  28
3107,  1,  0.000,  0.000,  0.000,  0.000,  3,  0.96075,  -109.1874,  'INGRAM 0',  115.00,  28
3108,  1,  0.000,  0.000,  0.000,  0.000,  3,  1.00843,  -100.7214,  'KEMPNER ',  115.00,  28
3110,  2,  12.616,  -1.094,  0.000,  0.000,  3,  1.04000,  -68.8947,  'FLUVANNA',  13.800,  27
3118,  2,  29.823,  -2.918,  0.000,  0.000,  3,  1.00000,  -71.7794,  'SYNDER 2',  13.800,  27
3119,  1,  0.000,  0.000,  0.000,  0.000,  3,  0.99276,  -115.1582,  'BRACKETT',  115.00,  28
3120,  2,  0.000,  0.000,  0.000,  0.000,  3,  0.99276,  -115.1582,  'BRACKETT',  13.800,  28
3122,  2,  16.246,  -1.080,  0.000,  0.000,  3,  1.00000,  -69.8612,  'ROSCOE 1',  18.000,  27
3123,  1,  0.000,  0.000,  0.000,  0.000,  3,  0.93376,  -121.2926,  'UVALDE 0',  115.00,  28
3124,  1,  0.001,  -45.070,  0.000,  0.000,  3,  1.00078,  -106.6406,  'FREDERIC',  115.00,  28
3126,  1,  0.170,  -37.924,  0.000,  0.000,  3,  0.91799,  -121.5422,  'SABINAL ',  115.00,  28
3127,  2,  10.913,  -1.010,  0.000,  0.000,  3,  1.01700,  -74.9262,  'SWEETWAT',  115.00,  27
3129,  2,  18.152,  -29.131,  0.000,  0.000,  3,  1.02367,  -74.5689,  'ROSCOE 3',  115.00,  27
3131,  2,  95.730,  -6.561,  0.000,  0.000,  3,  1.02000,  -79.3099,  'TUSOCOLA',  115.00,  27
3132,  1,  0.000,  0.000,  0.000,  0.000,  3,  1.01644,  -92.3628,  'EDEN 0  ',  115.00,  28
3137,  2,  103.785,  -11.607,  0.000,  0.000,  3,  1.02971,  -79.5888,  'SWEETWAT',  115.00,  27
3138,  1,  0.000,  0.000,  0.000,  0.000,  3,  1.02527,  -91.5423,  'MENARD 0',  115.00,  28
3141,  2,  25.549,  -4.622,  0.000,  0.000,  3,  1.01917,  -75.8911,  'SWEETWAT',  115.00,  27
3142,  1,  71.883,  -29.765,  0.000,  0.000,  3,  1.03001,  -92.4373,  'GOODFELL',  115.00,  27
3143,  1,  0.000,  -17.911,  0.000,  0.000,  3,  1.02644,  -91.0378,  'SANTA AN',  115.00,  28
3144,  1,  0.000,  0.000,  0.000,  0.000,  3,  1.02027,  -91.8531,  'ROWENA 0',  115.00,  28
3146,  1,  -0.001,  -9.633,  0.000,  0.000,  3,  1.03002,  -88.7893,  'JUNCTION',  115.00,  28
3147,  1,  0.003,  -36.883,  0.000,  0.000,  3,  1.02653,  -100.2438,  'LAMPASAS',  115.00,  28
4002,  1,  0.000,  0.000,  0.000,  0.000,  4,  0.98009,  -116.6714,  'LAUGHLIN',  115.00,  20
4004,  1,  0.000,  0.000,  0.000,  0.000,  4,  1.02342,  -113.2539,  'LAREDO 7',  230.00,  20
4005,  1,  -0.033,  -72.820,  0.000,  0.000,  4,  1.03007,  -116.0777,  'LAREDO 7',  115.00,  20
4006,  1,  0.000,  0.000,  0.000,  0.000,  4,  1.02780,  -112.9791,  'BRUNI 2 ',  115.00,  20
4008,  1,  0.000,  0.000,  0.000,  0.000,  4,  0.99694,  -101.9841,  'POTEET 0',  115.00,  20
4010,  2,  12.835,  -6.470,  0.000,  0.000,  4,  1.03000,  -112.7952,  'SARITA 3',  20.000,  21
4011,  1,  37.254,  -4.154,  0.000,  0.000,  4,  1.01887,  -116.8789,  'HEBBRONV',  115.00,  19
4014,  1,  0.000,  0.000,  0.000,  0.000,  4,  1.01527,  -109.1636,  'EAGLE PA',  230.00,  20
4015,  1,  0.004,  -78.206,  0.000,  0.000,  4,  1.02123,  -110.7460,  'EAGLE PA',  115.00,  20
4016,  1,  0.000,  0.000,  0.000,  0.000,  4,  1.00494,  -101.5481,  'CHARLOTT',  115.00,  20
4022,  1,  0.000,  0.000,  0.000,  0.000,  4,  1.01085,  -115.1418,  'ENCINAL ',  115.00,  20
4023,  1,  0.000,  0.000,  0.000,  0.000,  4,  1.00496,  -101.3992,  'MOORE 0 ',  115.00,  20
4024,  1,  0.000,  0.000,  0.000,  0.000,  4,  1.01324,  -99.1356,  'CHRISTIN',  230.00,  20
4025,  1,  0.000,  0.000,  0.000,  0.000,  4,  1.00875,  -100.8083,  'CHRISTIN',  115.00,  20
4026,  2,  0.000,  0.000,  0.000,  0.000,  4,  1.03000,  -96.9080,  'CHRISTIN',  13.800,  20
4029,  1,  31.103,  10.280,  0.000,  0.000,  4,  0.98513,  -90.7573,  'FANNIN 1',  115.00,  21
4030,  3,  -3.217,  2.349,  0.000,  0.000,  4,  1.01000,  -87.5629,  'FANNIN 2',  13.800,  21
4031,  1,  0.000,  0.000,  0.000,  0.000,  4,  1.02076,  -117.2044,  'SAN YGNA',  115.00,  20
4033,  1,  0.000,  0.000,  0.000,  0.000,  4,  1.01147,  -116.4826,  'LAREDO 6',  115.00,  20
4036,  1,  0.000,  0.000,  0.000,  0.000,  4,  0.97996,  -110.1773,  'CRYSTAL ',  115.00,  20
4043,  1,  49.915,  -0.430,  0.000,  0.000,  4,  1.01214,  -121.0459,  'FALCON H',  115.00,  19
4047,  2,  22.209,  1.606,  0.000,  0.000,  4,  1.02000,  -119.3743,  'FALCON H',  13.800,  19
4050,  2,  28.241,  -13.191,  0.000,  0.000,  4,  1.00359,  -125.3503,  'SEBASTIA',  13.800,  19
4058,  2,  45.143,  11.110,  0.000,  0.000,  4,  1.03000,  -100.5203,  'GREGORY ',  13.800,  21
4059,  2,  47.635,  11.778,  0.000,  0.000,  4,  1.03000,  -100.9403,  'GREGORY ',  13.800,  21
4060,  2,  36.046,  8.114,  0.000,  0.000,  4,  1.03000,  -99.3409,  'GREGORY ',  13.800,  21
4061,  2,  47.457,  12.012,  0.000,  0.000,  4,  1.03000,  -99.2880,  'GREGORY ',  13.800,  21
4062,  2,  43.739,  9.483,  0.000,  0.000,  4,  1.03000,  -98.3207,  'GREGORY ',  13.800,  21
4063,  2,  46.624,  12.453,  0.000,  0.000,  4,  1.03000,  -99.2136,  'GREGORY ',  13.800,  21
4073,  1,  1484.851,  -267.482,  0.000,  0.000,  4,  1.02008,  -124.8462,  'MISSION ',  230.00,  19
4082,  2,  21.265,  2.773,  0.000,  0.000,  4,  1.04000,  -104.3734,  'CORPUS C',  13.800,  21
4083,  2,  22.464,  2.902,  0.000,  0.000,  4,  1.04000,  -104.7474,  'CORPUS C',  13.800,  21
4084,  2,  35.102,  3.474,  0.000,  0.000,  4,  1.04000,  -106.7305,  'CORPUS C',  13.800,  21
4085,  2,  43.405,  4.353,  0.000,  0.000,  4,  1.04000,  -105.5898,  'CORPUS C',  13.800,  21
4101,  1,  0.000,  0.000,  0.000,  0.000,  4,  1.00935,  -116.5246,  'LAREDO 3',  115.00,  20
4105,  2,  155.053,  18.734,  0.000,  0.000,  4,  1.01000,  -109.8513,  'TAFT 2 1',  18.000,  21
4113,  1,  0.000,  0.000,  0.000,  0.000,  4,  1.02506,  -113.9577,  'LAREDO 1',  230.00,  20
4114,  1,  0.000,  0.000,  0.000,  0.000,  4,  1.01775,  -115.6464,  'LAREDO 1',  115.00,  20
4115,  2,  0.000,  0.000,  0.000,  0.000,  4,  1.04000,  -112.8244,  'LAREDO 1',  13.800,  20
4116,  2,  0.000,  0.000,  0.000,  0.000,  4,  1.04000,  -112.7724,  'LAREDO 1',  13.800,  20
4117,  1,  0.000,  0.000,  0.000,  0.000,  4,  1.00535,  -101.5436,  'JOURDANT',  115.00,  20
4118,  1,  75.849,  -3.595,  0.000,  0.000,  4,  0.98503,  -119.0014,  'GEORGE W',  115.00,  21
4125,  1,  47.369,  7.592,  0.000,  0.000,  4,  0.97492,  -101.2917,  'PETTUS 0',  115.00,  21
4129,  1,  0.000,  0.000,  0.000,  0.000,  4,  1.03190,  -119.0999,  'PREMONT ',  115.00,  20
4130,  1,  0.001,  -26.429,  0.000,  0.000,  4,  1.03004,  -120.5268,  'FREER 0 ',  115.00,  20
4131,  1,  -0.131,  -112.970,  0.000,  0.000,  4,  1.00575,  -104.8289,  'PEARSALL',  230.00,  20
4132,  1,  0.000,  0.000,  0.000,  0.000,  4,  0.99733,  -106.3447,  'PEARSALL',  115.00,  20
4133,  2,  0.000,  0.000,  0.000,  0.000,  4,  1.00575,  -104.8289,  'PEARSALL',  20.000,  20
4134,  2,  0.000,  0.000,  0.000,  0.000,  4,  1.00575,  -104.8289,  'PEARSALL',  20.000,  20
4135,  2,  0.000,  0.000,  0.000,  0.000,  4,  1.00575,  -104.8289,  'PEARSALL',  20.000,  20
4136,  2,  0.000,  0.000,  0.000,  0.000,  4,  1.00575,  -104.8289,  'PEARSALL',  20.000,  20
4137,  2,  0.000,  0.000,  0.000,  0.000,  4,  1.00575,  -104.8289,  'PEARSALL',  20.000,  20
4138,  2,  0.000,  0.000,  0.000,  0.000,  4,  1.00575,  -104.8289,  'PEARSALL',  20.000,  20
4140,  1,  208.328,  -44.077,  0.000,  0.000,  4,  1.03182,  -113.1433,  'SARITA 1',  230.00,  21
4142,  2,  0.000,  0.000,  0.000,  0.000,  4,  1.04000,  -112.0681,  'SARITA 1',  13.800,  21
4143,  1,  0.000,  0.000,  0.000,  0.000,  4,  0.98654,  -108.9132,  'DILLEY 0',  115.00,  20
4146,  1,  0.000,  0.000,  0.000,  0.000,  4,  1.02357,  -113.2959,  'LAREDO 4',  230.00,  20
4147,  1,  0.110,  -105.207,  0.000,  0.000,  4,  1.02578,  -115.2074,  'LAREDO 4',  115.00,  20
4148,  1,  0.000,  0.000,  0.000,  0.000,  4,  0.99585,  -120.3883,  'THREE RI',  115.00,  20
4153,  2,  14.813,  -18.898,  0.000,  0.000,  4,  1.03757,  -114.0142,  'ARMSTRON',  18.000,  21
4160,  2,  135.966,  38.261,  0.000,  0.000,  4,  1.03000,  -104.0989,  'CORPUS C',  13.800,  21
4161,  2,  64.290,  18.593,  0.000,  0.000,  4,  1.03000,  -101.3524,  'CORPUS C',  13.800,  21
4162,  2,  65.207,  17.372,  0.000,  0.000,  4,  1.03000,  -101.4169,  'CORPUS C',  13.800,  21
4166,  2,  14.914,  -5.681,  0.000,  0.000,  4,  1.01232,  -112.1049,  'SARITA 2',  13.800,  21
4172,  1,  0.000,  0.000,  0.000,  0.000,  4,  0.99543,  -103.4434,  'PLEASANT',  115.00,  20
4174,  1,  0.002,  -89.960,  0.000,  0.000,  4,  1.02878,  -101.1594,  'LYTLE 0 ',  115.00,  20
4175,  1,  -0.023,  -18.625,  0.000,  0.000,  4,  1.03004,  -116.3192,  'LAREDO 2',  115.00,  20
4176,  1,  0.000,  0.000,  0.000,  0.000,  4,  1.03743,  -115.6899,  'BRUNI 1 ',  115.00,  20
4177,  2,  0.000,  0.000,  0.000,  0.000,  4,  1.04000,  -113.9557,  'BRUNI 1 ',  13.800,  20
4178,  1,  65.667,  -41.475,  0.000,  0.000,  4,  0.98957,  -103.7122,  'GOLIAD 0',  115.00,  21
4179,  1,  0.000,  0.000,  0.000,  0.000,  4,  1.01563,  -121.1061,  'SAN DIEG',  115.00,  20
4181,  2,  223.272,  30.202,  0.000,  0.000,  4,  1.01330,  -102.7430,  'TAFT 1 0',  230.00,  21
4183,  2,  86.904,  -3.679,  0.000,  0.000,  4,  1.01998,  -115.2822,  'SAN PERL',  230.00,  19
4187,  1,  0.000,  0.000,  0.000,  0.000,  4,  0.99431,  -113.9631,  'COTULLA ',  115.00,  20
4188,  1,  0.000,  0.000,  0.000,  0.000,  4,  1.00543,  -113.4216,  'QUEMADO ',  115.00,  20
...
 0 /End of Bus data, Begin Generator data
1004,  '1',  81.672,  -30.380,  44.940,  -30.380,  1.01000,  0,  253.200,  0.00000,  1.00000,  0.00000,  0.00000,  1.00000,  1,  100.0,  211.000,  63.300
1009,  '1',  31.931,  -11.880,  17.570,  -11.880,  1.00000,  0,  99.000,  0.00000,  1.00000,  0.00000,  0.00000,  1.00000,  1,  100.0,  82.500,  24.750
1021,  '1',  77.223,  -28.730,  42.490,  -28.730,  1.00000,  0,  239.400,  0.00000,  1.00000,  0.00000,  0.00000,  1.00000,  1,  100.0,  199.500,  59.850
1023,  '1',  69.673,  -11.886,  38.340,  -25.920,  1.01000,  0,  216.000,  0.00000,  1.00000,  0.00000,  0.00000,  1.00000,  1,  100.0,  180.000,  54.000
1026,  '1',  48.074,  -17.880,  26.450,  -17.880,  1.00000,  0,  149.040,  0.00000,  1.00000,  0.00000,  0.00000,  1.00000,  1,  100.0,  124.200,  37.260
1033,  '1',  107.606,  -25.232,  59.210,  -40.030,  1.00000,  0,  333.600,  0.00000,  1.00000,  0.00000,  0.00000,  1.00000,  1,  100.0,  278.000,  83.400
1035,  '1',  34.836,  -12.960,  19.170,  -12.960,  1.00000,  0,  108.000,  0.00000,  1.00000,  0.00000,  0.00000,  1.00000,  1,  100.0,  90.000,  27.000
1039,  '1',  57.096,  -14.944,  31.420,  -21.240,  1.00000,  0,  177.000,  0.00000,  1.00000,  0.00000,  0.00000,  1.00000,  1,  100.0,  147.500,  44.250
1042,  '1',  62.912,  -8.318,  25.960,  -17.550,  1.00000,  0,  146.280,  0.00000,  1.00000,  0.00000,  0.00000,  1.00000,  1,  100.0,  121.900,  36.570
1048,  '1',  234.140,  12.873,  165.530,  -36.100,  1.00000,  0,  390.240,  0.00000,  0.10170,  0.00000,  0.00000,  1.00000,  1,  100.0,  325.200,  97.560
1049,  '1',  234.140,  31.128,  165.530,  -36.100,  1.00000,  0,  390.240,  0.00000,  0.13490,  0.00000,  0.00000,  1.00000,  1,  100.0,  325.200,  97.560
1053,  '1',  103.700,  -19.850,  91.010,  -19.850,  1.00000,  0,  214.560,  0.00000,  0.16870,  0.00000,  0.00000,  1.00000,  1,  100.0,  178.800,  53.640
1057,  '1',  61.931,  -17.280,  25.560,  -17.280,  1.00000,  0,  144.000,  0.00000,  1.00000,  0.00000,  0.00000,  1.00000,  1,  100.0,  120.000,  36.000
1066,  '1',  55.160,  -9.575,  30.350,  -20.520,  1.00000,  0,  171.000,  0.00000,  1.00000,  0.00000,  0.00000,  1.00000,  1,  100.0,  142.500,  42.750
1070,  '1',  62.128,  24.794,  34.190,  -23.110,  1.04000,  0,  192.600,  0.00000,  1.00000,  0.00000,  0.00000,  1.00000,  1,  100.0,  160.500,  48.150
1072,  '1',  159.436,  9.436,  97.800,  -21.330,  1.01000,  0,  230.560,  0.00000,  0.30820,  0.00000,  0.00000,  1.00000,  1,  100.0,  192.130,  57.640
1073,  '1',  138.330,  4.129,  97.800,  -21.330,  1.01000,  0,  230.560,  0.00000,  0.19480,  0.00000,  0.00000,  1.00000,  1,  100.0,  192.130,  57.640
1074,  '1',  138.330,  11.279,  97.800,  -21.330,  1.01000,  0,  230.560,  0.00000,  0.20960,  0.00000,  0.00000,  1.00000,  1,  100.0,  192.130,  57.640
1075,  '1',  138.330,  11.601,  97.800,  -21.330,  1.01000,  0,  230.560,  0.00000,  0.12370,  0.00000,  0.00000,  1.00000,  1,  100.0,  192.130,  57.640
1076,  '1',  138.330,  15.584,  97.800,  -21.330,  1.01000,  0,  230.560,  0.00000,  0.10660,  0.00000,  0.00000,  1.00000,  1,  100.0,  192.130,  57.640
1077,  '1',  138.330,  10.113,  97.800,  -21.330,  1.01000,  0,  230.560,  0.00000,  0.15380,  0.00000,  0.00000,  1.00000,  1,  100.0,  192.130,  57.640
1081,  '1',  206.280,  18.409,  145.830,  -31.800,  1.01000,  0,  343.800,  0.00000,  0.14960,  0.00000,  0.00000,  1.00000,  1,  100.0,  286.500,  85.950
1082,  '1',  58.061,  -21.600,  31.950,  -21.600,  1.00000,  0,  180.000,  0.00000,  1.00000,  0.00000,  0.00000,  1.00000,  1,  100.0,  150.000,  45.000
1084,  '1',  44.704,  24.600,  24.600,  -16.630,  1.04000,  0,  138.600,  0.00000,  1.00000,  0.00000,  0.00000,  1.00000,  1,  100.0,  115.500,  34.650
2004,  '1',  117.540,  -15.308,  199.430,  -43.490,  1.02000,  0,  470.160,  0.00000,  0.10640,  0.00000,  0.00000,  1.00000,  1,  100.0,  391.800,  117.540
2005,  '1',  117.540,  -13.540,  199.430,  -43.490,  1.02000,  0,  470.160,  0.00000,  0.22750,  0.00000,  0.00000,  1.00000,  1,  100.0,  391.800,  117.540
2006,  '1',  117.540,  -7.746,  199.430,  -43.490,  1.02000,  0,  470.160,  0.00000,  0.20040,  0.00000,  0.00000,  1.00000,  1,  100.0,  391.800,  117.540
2013,  '1',  144.075,  -28.890,  42.730,  -28.890,  1.00000,  0,  240.720,  0.00000,  1.00000,  0.00000,  0.00000,  1.00000,  1,  100.0,  200.600,  60.180
2019,  '1',  200.387,  -11.191,  46.430,  -31.390,  1.04000,  0,  261.600,  0.00000,  1.00000,  0.00000,  0.00000,  1.00000,  1,  100.0,  218.000,  65.400
2024,  '1',  120.000,  -8.501,  84.830,  -18.500,  1.02000,  0,  200.000,  0.00000,  0.15080,  0.00000,  0.00000,  1.00000,  1,  100.0,  166.670,  50.000
2042,  '1',  57.457,  -11.460,  16.950,  -11.460,  1.01000,  0,  95.520,  0.00000,  1.00000,  0.00000,  0.00000,  1.00000,  1,  100.0,  79.600,  23.880
2057,  '1',  157.877,  -102.089,  335.520,  -87.840,  0.99000,  0,  864.000,  0.00000,  0.17700,  0.00000,  0.00000,  1.00000,  1,  100.0,  720.000,  216.000
2059,  '1',  55.152,  -11.520,  17.040,  -11.520,  1.00000,  0,  96.000,  0.00000,  1.00000,  0.00000,  0.00000,  1.00000,  1,  100.0,  80.000,  24.000
2062,  '1',  66.353,  -16.477,  28.840,  -19.500,  1.02000,  0,  162.480,  0.00000,  1.00000,  0.00000,  0.00000,  1.00000,  1,  100.0,  135.400,  40.620
2071,  '1',  41.903,  -10.880,  31.950,  -21.600,  1.00000,  0,  180.000,  0.00000,  1.00000,  0.00000,  0.00000,  1.00000,  1,  100.0,  150.000,  45.000
2078,  '1',  31.429,  -9.996,  23.960,  -16.200,  1.02000,  0,  135.000,  0.00000,  1.00000,  0.00000,  0.00000,  1.00000,  1,  100.0,  112.500,  33.750
2095,  '1',  76.132,  -11.450,  16.930,  -11.450,  1.00000,  0,  95.400,  0.00000,  1.00000,  0.00000,  0.00000,  1.00000,  1,  100.0,  79.500,  23.850
2100,  '1',  81.719,  -21.600,  31.950,  -21.600,  1.02000,  0,  180.000,  0.00000,  1.00000,  0.00000,  0.00000,  1.00000,  1,  100.0,  150.000,  45.000
2103,  '1',  80.320,  -29.720,  136.280,  -29.720,  1.00000,  0,  321.280,  0.00000,  0.33430,  0.00000,  0.00000,  1.00000,  1,  100.0,  267.730,  80.320
2104,  '1',  80.320,  -29.720,  136.280,  -29.720,  1.00000,  0,  321.280,  0.00000,  0.31470,  0.00000,  0.00000,  1.00000,  1,  100.0,  267.730,  80.320
2105,  '1',  80.320,  -29.720,  136.280,  -29.720,  1.00000,  0,  321.280,  0.00000,  0.14160,  0.00000,  0.00000,  1.00000,  1,  100.0,  267.730,  80.320
2115,  '1',  133.000,  -20.500,  94.020,  -20.500,  1.00000,  0,  221.660,  0.00000,  0.14250,  0.00000,  0.00000,  1.00000,  1,  100.0,  184.720,  55.410
2116,  '1',  133.000,  -20.500,  94.020,  -20.500,  1.00000,  0,  221.660,  0.00000,  0.18690,  0.00000,  0.00000,  1.00000,  1,  100.0,  184.720,  55.410
2117,  '1',  133.000,  -20.500,  94.020,  -20.500,  1.00000,  0,  221.660,  0.00000,  0.32540,  0.00000,  0.00000,  1.00000,  1,  100.0,  184.720,  55.410
2118,  '1',  133.000,  -20.500,  94.020,  -20.500,  1.00000,  0,  221.660,  0.00000,  0.10610,  0.00000,  0.00000,  1.00000,  1,  100.0,  184.720,  55.410
2119,  '1',  133.000,  -20.500,  94.020,  -20.500,  1.00000,  0,  221.660,  0.00000,  0.13600,  0.00000,  0.00000,  1.00000,  1,  100.0,  184.720,  55.410
2120,  '1',  133.000,  -20.500,  94.020,  -20.500,  1.01000,  0,  221.660,  0.00000,  0.20680,  0.00000,  0.00000,  1.00000,  1,  100.0,  184.720,  55.410
2123,  '1',  131.160,  -26.160,  38.700,  -26.160,  1.00000,  0,  218.040,  0.00000,  1.00000,  0.00000,  0.00000,  1.00000,  1,  100.0,  181.700,  54.510
2127,  '1',  197.391,  -41.560,  61.470,  -41.560,  1.04000,  0,  346.320,  0.00000,  1.00000,  0.00000,  0.00000,  1.00000,  1,  100.0,  288.600,  86.580
3017,  '1',  65.611,  -10.010,  36.100,  -24.410,  1.01000,  0,  203.400,  0.00000,  1.00000,  0.00000,  0.00000,  1.00000,  1,  100.0,  169.500,  50.850
3020,  '1',  58.061,  2.116,  31.950,  -21.600,  1.03000,  0,  180.000,  0.00000,  1.00000,  0.00000,  0.00000,  1.00000,  1,  100.0,  150.000,  45.000
3028,  '1',  55.871,  24.068,  42.600,  -28.800,  1.04000,  0,  240.000,  0.00000,  1.00000,  0.00000,  0.00000,  1.00000,  1,  100.0,  200.000,  60.000
3034,  '1',  50.510,  8.433,  27.800,  -18.790,  1.03000,  0,  156.600,  0.00000,  1.00000,  0.00000,  0.00000,  1.00000,  1,  100.0,  130.500,  39.150
3039,  '1',  80.898,  22.025,  44.520,  -30.100,  1.04000,  0,  250.800,  0.00000,  1.00000,  0.00000,  0.00000,  1.00000,  1,  100.0,  209.000,  62.700
3045,  '1',  134.100,  15.293,  227.520,  -49.620,  1.04000,  0,  536.400,  0.00000,  0.14470,  0.00000,  0.00000,  1.00000,  1,  100.0,  447.000,  134.100
3048,  '1',  93.284,  51.330,  51.330,  -34.700,  1.04000,  0,  289.200,  0.00000,  1.00000,  0.00000,  0.00000,  1.00000,  1,  100.0,  241.000,  72.300
3055,  '1',  94.900,  21.154,  52.220,  -35.300,  1.04000,  0,  294.200,  0.00000,  1.00000,  0.00000,  0.00000,  1.00000,  1,  100.0,  245.170,  73.550
3056,  '1',  94.900,  12.292,  52.220,  -35.300,  1.04000,  0,  294.200,  0.00000,  1.00000,  0.00000,  0.00000,  1.00000,  1,  100.0,  245.170,  73.550
3057,  '1',  94.900,  11.586,  52.220,  -35.300,  1.04000,  0,  294.200,  0.00000,  1.00000,  0.00000,  0.00000,  1.00000,  1,  100.0,  245.170,  73.550
3060,  '1',  64.109,  6.374,  35.280,  -23.850,  1.04000,  0,  198.750,  0.00000,  1.00000,  0.00000,  0.00000,  1.00000,  1,  100.0,  165.630,  49.690
3061,  '1',  64.109,  8.007,  35.280,  -23.850,  1.04000,  0,  198.750,  0.00000,  1.00000,  0.00000,  0.00000,  1.00000,  1,  100.0,  165.630,  49.690
3062,  '1',  64.109,  13.822,  35.280,  -23.850,  1.04000,  0,  198.750,  0.00000,  1.00000,  0.00000,  0.00000,  1.00000,  1,  100.0,  165.630,  49.690
3063,  '1',  64.109,  9.798,  35.280,  -23.850,  1.04000,  0,  198.750,  0.00000,  1.00000,  0.00000,  0.00000,  1.00000,  1,  100.0,  165.630,  49.690
3065,  '1',  31.157,  -11.590,  17.150,  -11.590,  1.00000,  0,  96.600,  0.00000,  1.00000,  0.00000,  0.00000,  1.00000,  1,  100.0,  80.500,  24.150
3068,  '1',  58.061,  23.694,  31.950,  -21.600,  1.04000,  0,  180.000,  0.00000,  1.00000,  0.00000,  0.00000,  1.00000,  1,  100.0,  150.000,  45.000
3071,  '1',  65.880,  -24.510,  36.250,  -24.510,  1.00000,  0,  204.240,  0.00000,  1.00000,  0.00000,  0.00000,  1.00000,  1,  100.0,  170.200,  51.060
3074,  '1',  38.630,  21.260,  21.260,  -14.370,  1.00000,  0,  119.760,  0.00000,  1.00000,  0.00000,  0.00000,  1.00000,  1,  100.0,  99.800,  29.940
3081,  '1',  96.381,  13.760,  53.040,  -35.860,  1.04000,  0,  298.800,  0.00000,  1.00000,  0.00000,  0.00000,  1.00000,  1,  100.0,  249.000,  74.700
3084,  '1',  89.992,  -27.128,  49.520,  -33.480,  1.00000,  0,  279.000,  0.00000,  1.00000,  0.00000,  0.00000,  1.00000,  1,  100.0,  232.500,  69.750
3087,  '1',  38.707,  -10.800,  15.970,  -10.800,  1.00000,  0,  90.000,  0.00000,  1.00000,  0.00000,  0.00000,  1.00000,  1,  100.0,  75.000,  22.500
3092,  '1',  77.414,  13.258,  42.600,  -28.800,  1.04000,  0,  240.000,  0.00000,  1.00000,  0.00000,  0.00000,  1.00000,  1,  100.0,  200.000,  60.000
3095,  '1',  46.681,  9.737,  25.690,  -17.370,  1.04000,  0,  144.720,  0.00000,  1.00000,  0.00000,  0.00000,  1.00000,  1,  100.0,  120.600,  36.180
3098,  '1',  61.931,  6.083,  34.080,  -23.040,  1.04000,  0,  192.000,  0.00000,  1.00000,  0.00000,  0.00000,  1.00000,  1,  100.0,  160.000,  48.000
3106,  '1',  81.678,  -13.595,  62.477,  -2.690,  1.00000,  0,  65.880,  0.00000,  0.29220,  0.00000,  0.00000,  1.00000,  1,  100.0,  162.800,  0.000
3110,  '1',  32.514,  5.488,  17.890,  -12.100,  1.04000,  0,  100.800,  0.00000,  1.00000,  0.00000,  0.00000,  1.00000,  1,  100.0,  84.000,  25.200
3118,  '1',  46.449,  -15.114,  25.560,  -17.280,  1.00000,  0,  144.000,  0.00000,  1.00000,  0.00000,  0.00000,  1.00000,  1,  100.0,  120.000,  36.000
3120,  '1',  0.000,  0.000,  0.000,  0.000,  1.00000,  0,  47.520,  0.00000,  1.00000,  0.00000,  0.00000,  1.00000,  0,  100.0,  39.600,  11.880
3122,  '1',  76.253,  -18.185,  41.960,  -28.370,  1.00000,  0,  236.400,  0.00000,  1.00000,  0.00000,  0.00000,  1.00000,  1,  100.0,  197.000,  59.100
3127,  '1',  52.255,  -19.440,  28.760,  -19.440,  1.00000,  0,  162.000,  0.00000,  1.00000,  0.00000,  0.00000,  1.00000,  1,  100.0,  135.000,  40.500
3129,  '1',  48.967,  -18.220,  26.940,  -18.220,  1.00000,  0,  151.800,  0.00000,  1.00000,  0.00000,  0.00000,  1.00000,  1,  100.0,  126.500,  37.950
3131,  '1',  44.126,  0.788,  24.280,  -16.420,  1.02000,  0,  136.800,  0.00000,  1.00000,  0.00000,  0.00000,  1.00000,  1,  100.0,  114.000,  34.200
3137,  '1',  39.172,  21.560,  21.560,  -14.570,  1.03000,  0,  121.440,  0.00000,  1.00000,  0.00000,  0.00000,  1.00000,  1,  100.0,  101.200,  30.360
3141,  '1',  35.414,  -13.180,  19.490,  -13.180,  1.00000,  0,  109.800,  0.00000,  1.00000,  0.00000,  0.00000,  1.00000,  1,  100.0,  91.500,  27.450
4010,  '1',  78.034,  9.069,  42.940,  -29.030,  1.03000,  0,  241.920,  0.00000,  1.00000,  0.00000,  0.00000,  1.00000,  1,  100.0,  201.600,  60.480
4026,  '1',  123.000,  51.506,  191.060,  -50.020,  1.03000,  0,  492.000,  0.00000,  0.32770,  0.00000,  0.00000,  1.00000,  1,  100.0,  410.000,  123.000
4030,  '1',  105.469,  154.891,  290.040,  -75.930,  1.01000,  0,  746.880,  0.00000,  0.27970,  0.00000,  0.00000,  1.00000,  1,  100.0,  622.400,  186.720
4047,  '1',  40.053,  4.832,  75.102,  -3.230,  1.02000,  0,  79.200,  0.00000,  0.32270,  0.00000,  0.00000,  1.00000,  1,  100.0,  195.700,  0.000
4050,  '1',  77.414,  -28.800,  42.600,  -28.800,  1.00000,  0,  240.000,  0.00000,  1.00000,  0.00000,  0.00000,  1.00000,  1,  100.0,  200.000,  60.000
4058,  '1',  83.520,  21.953,  73.300,  -15.980,  1.03000,  0,  172.800,  0.00000,  0.13700,  0.00000,  0.00000,  1.00000,  1,  100.0,  144.000,  43.200
4059,  '1',  83.520,  24.256,  73.300,  -15.980,  1.03000,  0,  172.800,  0.00000,  0.15140,  0.00000,  0.00000,  1.00000,  1,  100.0,  144.000,  43.200
4060,  '1',  83.520,  15.898,  73.300,  -15.980,  1.03000,  0,  172.800,  0.00000,  0.13940,  0.00000,  0.00000,  1.00000,  1,  100.0,  144.000,  43.200
4061,  '1',  124.080,  23.309,  87.720,  -19.130,  1.03000,  0,  206.800,  0.00000,  0.21560,  0.00000,  0.00000,  1.00000,  1,  100.0,  172.330,  51.700
4062,  '1',  124.080,  18.121,  87.720,  -19.130,  1.03000,  0,  206.800,  0.00000,  0.25930,  0.00000,  0.00000,  1.00000,  1,  100.0,  172.330,  51.700
4063,  '1',  124.080,  24.590,  87.720,  -19.130,  1.03000,  0,  206.800,  0.00000,  0.14410,  0.00000,  0.00000,  1.00000,  1,  100.0,  172.330,  51.700
4082,  '1',  175.250,  25.459,  123.890,  -27.020,  1.04000,  0,  292.080,  0.00000,  0.13810,  0.00000,  0.00000,  1.00000,  1,  100.0,  243.400,  73.020
4083,  '1',  175.250,  26.823,  123.890,  -27.020,  1.04000,  0,  292.080,  0.00000,  0.15700,  0.00000,  0.00000,  1.00000,  1,  100.0,  243.400,  73.020
4084,  '1',  175.250,  45.608,  123.890,  -27.020,  1.04000,  0,  292.080,  0.00000,  0.19110,  0.00000,  0.00000,  1.00000,  1,  100.0,  243.400,  73.020
4085,  '1',  302.720,  53.851,  179.170,  -39.070,  1.04000,  0,  422.400,  0.00000,  0.31920,  0.00000,  0.00000,  1.00000,  1,  100.0,  352.000,  105.600
4105,  '1',  50.284,  28.070,  38.340,  -25.920,  1.01000,  0,  216.000,  0.00000,  1.00000,  0.00000,  0.00000,  1.00000,  1,  100.0,  180.000,  54.000
4115,  '1',  39.540,  28.399,  67.090,  -14.630,  1.04000,  0,  158.160,  0.00000,  0.11310,  0.00000,  0.00000,  1.00000,  1,  100.0,  131.800,  39.540
4116,  '1',  39.540,  26.605,  67.090,  -14.630,  1.04000,  0,  158.160,  0.00000,  0.15150,  0.00000,  0.00000,  1.00000,  1,  100.0,  131.800,  39.540
4133,  '1',  0.000,  0.000,  17.100,  -3.730,  1.00000,  0,  40.320,  0.00000,  0.22730,  0.00000,  0.00000,  1.00000,  0,  100.0,  33.600,  10.080
4134,  '1',  0.000,  -3.730,  17.100,  -3.730,  1.00000,  0,  40.320,  0.00000,  0.18000,  0.00000,  0.00000,  1.00000,  0,  100.0,  33.600,  10.080
4135,  '1',  0.000,  -3.730,  17.100,  -3.730,  1.00000,  0,  40.320,  0.00000,  0.10840,  0.00000,  0.00000,  1.00000,  0,  100.0,  33.600,  10.080
4136,  '1',  0.000,  -3.730,  17.100,  -3.730,  1.00000,  0,  40.320,  0.00000,  0.18960,  0.00000,  0.00000,  1.00000,  0,  100.0,  33.600,  10.080
4137,  '1',  0.000,  0.000,  34.200,  -7.460,  1.00000,  0,  80.640,  0.00000,  0.27350,  0.00000,  0.00000,  1.00000,  0,  100.0,  67.200,  20.160
4138,  '1',  0.000,  0.000,  33.590,  -7.330,  1.00000,  0,  79.200,  0.00000,  0.16760,  0.00000,  0.00000,  1.00000,  0,  100.0,  66.000,  19.800
4142,  '1',  72.770,  29.757,  40.040,  -27.070,  1.04000,  0,  225.600,  0.00000,  1.00000,  0.00000,  0.00000,  1.00000,  1,  100.0,  188.000,  56.400
4153,  '1',  109.619,  60.320,  60.320,  -40.780,  1.04000,  0,  339.840,  0.00000,  1.00000,  0.00000,  0.00000,  1.00000,  1,  100.0,  283.200,  84.960
4160,  '1',  142.390,  64.335,  100.660,  -21.950,  1.03000,  0,  237.320,  0.00000,  0.18820,  0.00000,  0.00000,  1.00000,  1,  100.0,  197.770,  59.330
4161,  '1',  142.390,  30.219,  100.660,  -21.950,  1.03000,  0,  237.320,  0.00000,  0.12390,  0.00000,  0.00000,  1.00000,  1,  100.0,  197.770,  59.330
4162,  '1',  142.390,  27.461,  100.660,  -21.950,  1.03000,  0,  237.320,  0.00000,  0.17220,  0.00000,  0.00000,  1.00000,  1,  100.0,  197.770,  59.330
4166,  '1',  77.801,  -28.940,  42.810,  -28.940,  1.00000,  0,  241.200,  0.00000,  1.00000,  0.00000,  0.00000,  1.00000,  1,  100.0,  201.000,  60.300
4177,  '1',  58.061,  2.889,  31.950,  -21.600,  1.04000,  0,  180.000,  0.00000,  1.00000,  0.00000,  0.00000,  1.00000,  1,  100.0,  150.000,  45.000
4181,  '1',  55.897,  42.620,  42.620,  -28.810,  1.04000,  0,  240.120,  0.00000,  1.00000,  0.00000,  0.00000,  1.00000,  1,  100.0,  200.100,  60.030
4183,  '1',  78.576,  43.240,  43.240,  -29.230,  1.03000,  0,  243.600,  0.00000,  1.00000,  0.00000,  0.00000,  1.00000,  1,  100.0,  203.000,  60.900
4192,  '1',  973.650,  102.081,  688.320,  -150.120,  1.02000,  0,  1622.76,  0.00000,  0.14340,  0.00000,  0.00000,  1.00000,  1,  100.0,  1352.31,  405.690
4194,  '1',  78.034,  42.940,  42.940,  -29.030,  1.02000,  0,  241.920,  0.00000,  1.00000,  0.00000,  0.00000,  1.00000,  1,  100.0,  201.600,  60.480
4195,  '1',  35.611,  -13.250,  19.600,  -13.250,  1.00000,  0,  110.400,  0.00000,  1.00000,  0.00000,  0.00000,  1.00000,  1,  100.0,  92.000,  27.600
5020,  '1',  33.523,  -17.280,  25.560,  -17.280,  1.00000,  0,  144.000,  0.00000,  1.00000,  0.00000,  0.00000,  1.00000,  1,  100.0,  120.000,  36.000
5037,  '1',  308.470,  -9.115,  157.010,  -34.240,  1.02000,  0,  370.160,  0.00000,  0.29910,  0.00000,  0.00000,  1.00000,  1,  100.0,  308.470,  92.540
5038,  '1',  308.470,  -7.987,  157.010,  -34.240,  1.02000,  0,  370.160,  0.00000,  0.12330,  0.00000,  0.00000,  1.00000,  1,  100.0,  308.470,  92.540
5039,  '1',  308.470,  -25.885,  157.010,  -34.240,  1.02000,  0,  370.160,  0.00000,  0.21470,  0.00000,  0.00000,  1.00000,  1,  100.0,  308.470,  92.540
5040,  '1',  308.470,  -6.350,  157.010,  -34.240,  1.02000,  0,  370.160,  0.00000,  0.19240,  0.00000,  0.00000,  1.00000,  1,  100.0,  308.470,  92.540
5041,  '1',  308.470,  -12.019,  157.010,  -34.240,  1.02000,  0,  370.160,  0.00000,  0.11590,  0.00000,  0.00000,  1.00000,  1,  100.0,  308.470,  92.540
5042,  '1',  308.470,  -6.658,  157.010,  -34.240,  1.02000,  0,  370.160,  0.00000,  0.19130,  0.00000,  0.00000,  1.00000,  1,  100.0,  308.470,  92.540
5057,  '1',  317.350,  -35.230,  161.530,  -35.230,  1.00000,  0,  380.820,  0.00000,  0.19130,  0.00000,  0.00000,  1.00000,  1,  100.0,  317.350,  95.200
5058,  '1',  317.350,  -35.230,  161.530,  -35.230,  1.00000,  0,  380.820,  0.00000,  0.29820,  0.00000,  0.00000,  1.00000,  1,  100.0,  317.350,  95.200
5067,  '1',  438.270,  51.285,  223.080,  -48.650,  1.03000,  0,  525.920,  0.00000,  0.32610,  0.00000,  0.00000,  1.00000,  1,  100.0,  438.270,  131.480
5068,  '1',  438.270,  47.456,  223.080,  -48.650,  1.03000,  0,  525.920,  0.00000,  0.11690,  0.00000,  0.00000,  1.00000,  1,  100.0,  438.270,  131.480
5069,  '1',  438.270,  44.420,  223.080,  -48.650,  1.03000,  0,  525.920,  0.00000,  0.10560,  0.00000,  0.00000,  1.00000,  1,  100.0,  438.270,  131.480
5166,  '1',  73.370,  56.975,  64.390,  -14.040,  1.04000,  0,  151.800,  0.00000,  0.13910,  0.00000,  0.00000,  1.00000,  1,  100.0,  126.500,  37.950
5198,  '1',  41.903,  -21.600,  31.950,  -21.600,  1.00000,  0,  180.000,  0.00000,  1.00000,  0.00000,  0.00000,  1.00000,  1,  100.0,  150.000,  45.000
5206,  '1',  213.860,  -27.600,  126.570,  -27.600,  1.01000,  0,  298.400,  0.00000,  0.11980,  0.00000,  0.00000,  1.00000,  1,  100.0,  248.670,  74.600
5207,  '1',  213.860,  -27.600,  126.570,  -27.600,  1.01000,  0,  298.400,  0.00000,  0.18090,  0.00000,  0.00000,  1.00000,  1,  100.0,  248.670,  74.600
5208,  '1',  213.860,  -27.600,  126.570,  -27.600,  1.01000,  0,  298.400,  0.00000,  0.10560,  0.00000,  0.00000,  1.00000,  1,  100.0,  248.670,  74.600
5238,  '1',  62.855,  -32.400,  47.930,  -32.400,  1.00000,  0,  270.000,  0.00000,  1.00000,  0.00000,  0.00000,  1.00000,  1,  100.0,  225.000,  67.500
5243,  '1',  41.903,  -21.600,  31.950,  -21.600,  1.00000,  0,  180.000,  0.00000,  1.00000,  0.00000,  0.00000,  1.00000,  1,  100.0,  150.000,  45.000
5262,  '1',  1215.000,  -36.189,  447.120,  -99.630,  1.01000,  0,  1458.00,  0.00000,  0.26310,  0.00000,  0.00000,  1.00000,  1,  100.0,  1215.00,  364.500
5263,  '1',  1215.000,  -71.340,  447.120,  -99.630,  1.01000,  0,  1458.00,  0.00000,  0.16260,  0.00000,  0.00000,  1.00000,  1,  100.0,  1215.00,  364.500
5281,  '1',  155.280,  -29.720,  136.280,  -29.720,  1.00000,  0,  321.280,  0.00000,  0.10660,  0.00000,  0.00000,  1.00000,  1,  100.0,  267.730,  80.320
5282,  '1',  155.280,  -29.720,  136.280,  -29.720,  1.00000,  0,  321.280,  0.00000,  0.23940,  0.00000,  0.00000,  1.00000,  1,  100.0,  267.730,  80.320
5283,  '1',  155.280,  -29.720,  136.280,  -29.720,  1.00000,  0,  321.280,  0.00000,  0.10650,  0.00000,  0.00000,  1.00000,  1,  100.0,  267.730,  80.320
5302,  '1',  333.900,  86.620,  236.050,  -51.480,  1.04000,  0,  556.500,  0.00000,  0.13300,  0.00000,  0.00000,  1.00000,  1,  100.0,  463.750,  139.130
5303,  '1',  333.900,  113.994,  236.050,  -51.480,  1.04000,  0,  556.500,  0.00000,  0.17920,  0.00000,  0.00000,  1.00000,  1,  100.0,  463.750,  139.130
5319,  '1',  152.420,  -17.196,  133.770,  -29.170,  1.01000,  0,  315.360,  0.00000,  0.25070,  0.00000,  0.00000,  1.00000,  1,  100.0,  262.800,  78.840
5320,  '1',  152.420,  -16.727,  133.770,  -29.170,  1.01000,  0,  315.360,  0.00000,  0.28140,  0.00000,  0.00000,  1.00000,  1,  100.0,  262.800,  78.840
5321,  '1',  152.420,  -18.333,  133.770,  -29.170,  1.01000,  0,  315.360,  0.00000,  0.12810,  0.00000,  0.00000,  1.00000,  1,  100.0,  262.800,  78.840
5324,  '1',  284.070,  70.972,  144.590,  -31.530,  1.04000,  0,  340.880,  0.00000,  0.21670,  0.00000,  0.00000,  1.00000,  1,  100.0,  284.070,  85.220
5325,  '1',  284.070,  73.033,  144.590,  -31.530,  1.04000,  0,  340.880,  0.00000,  0.15030,  0.00000,  0.00000,  1.00000,  1,  100.0,  284.070,  85.220
5326,  '1',  284.070,  144.590,  144.590,  -31.530,  1.04000,  0,  340.880,  0.00000,  0.18810,  0.00000,  0.00000,  1.00000,  1,  100.0,  284.070,  85.220
5343,  '1',  42.468,  27.108,  79.667,  -3.430,  1.04000,  0,  84.000,  0.00000,  0.24140,  0.00000,  0.00000,  1.00000,  1,  100.0,  207.500,  0.000
5360,  '1',  400.575,  -36.754,  469.730,  -122.980,  1.01000,  0,  1209.60,  0.00000,  0.25510,  0.00000,  0.00000,  1.00000,  1,  100.0,  1008.00,  302.400
5364,  '1',  153.600,  -23.680,  108.590,  -23.680,  1.00000,  0,  256.000,  0.00000,  0.13030,  0.00000,  0.00000,  1.00000,  1,  100.0,  213.330,  64.000
5365,  '1',  153.600,  -23.680,  108.590,  -23.680,  1.00000,  0,  256.000,  0.00000,  0.11650,  0.00000,  0.00000,  1.00000,  1,  100.0,  213.330,  64.000
5366,  '1',  153.600,  -23.680,  108.590,  -23.680,  1.00000,  0,  256.000,  0.00000,  0.15490,  0.00000,  0.00000,  1.00000,  1,  100.0,  213.330,  64.000
5367,  '1',  153.600,  -23.680,  108.590,  -23.680,  1.00000,  0,  256.000,  0.00000,  0.10020,  0.00000,  0.00000,  1.00000,  1,  100.0,  213.330,  64.000
5368,  '1',  153.600,  -23.680,  108.590,  -23.680,  1.00000,  0,  256.000,  0.00000,  0.36180,  0.00000,  0.00000,  1.00000,  1,  100.0,  213.330,  64.000
5369,  '1',  153.600,  -23.680,  108.590,  -23.680,  1.00000,  0,  256.000,  0.00000,  0.24440,  0.00000,  0.00000,  1.00000,  1,  100.0,  213.330,  64.000
5382,  '1',  179.740,  106.380,  106.380,  -23.200,  1.04000,  0,  250.800,  0.00000,  0.24770,  0.00000,  0.00000,  1.00000,  1,  100.0,  209.000,  62.700
5383,  '1',  179.740,  104.046,  106.380,  -23.200,  1.04000,  0,  250.800,  0.00000,  0.39820,  0.00000,  0.00000,  1.00000,  1,  100.0,  209.000,  62.700
5399,  '1',  46.261,  35.270,  35.270,  -23.850,  1.04000,  0,  198.720,  0.00000,  1.00000,  0.00000,  0.00000,  1.00000,  1,  100.0,  165.600,  49.680
5403,  '1',  0.000,  45.500,  45.500,  -9.920,  1.03000,  0,  107.280,  0.00000,  0.19850,  0.00000,  0.00000,  1.00000,  0,  100.0,  89.400,  26.820
5404,  '1',  0.000,  45.500,  45.500,  -9.920,  1.03000,  0,  107.280,  0.00000,  0.13470,  0.00000,  0.00000,  1.00000,  0,  100.0,  89.400,  26.820
5405,  '1',  0.000,  45.500,  45.500,  -9.920,  1.03000,  0,  107.280,  0.00000,  0.14170,  0.00000,  0.00000,  1.00000,  0,  100.0,  89.400,  26.820
5406,  '1',  0.000,  45.500,  45.500,  -9.920,  1.03000,  0,  107.280,  0.00000,  0.12270,  0.00000,  0.00000,  1.00000,  0,  100.0,  89.400,  26.820
5415,  '1',  70.760,  -13.540,  62.100,  -13.540,  1.00000,  0,  146.400,  0.00000,  0.14030,  0.00000,  0.00000,  1.00000,  1,  100.0,  122.000,  36.600
5416,  '1',  70.760,  -13.540,  62.100,  -13.540,  1.00000,  0,  146.400,  0.00000,  0.26480,  0.00000,  0.00000,  1.00000,  1,  100.0,  122.000,  36.600
5417,  '1',  70.760,  -13.540,  62.100,  -13.540,  1.00000,  0,  146.400,  0.00000,  0.16960,  0.00000,  0.00000,  1.00000,  1,  100.0,  122.000,  36.600
5418,  '1',  68.900,  -13.190,  60.470,  -13.190,  1.00000,  0,  142.560,  0.00000,  0.34000,  0.00000,  0.00000,  1.00000,  1,  100.0,  118.800,  35.640
5419,  '1',  68.900,  -13.190,  60.470,  -13.190,  1.00000,  0,  142.560,  0.00000,  0.16420,  0.00000,  0.00000,  1.00000,  1,  100.0,  118.800,  35.640
5444,  '1',  1090.500,  -223.840,  1026.440,  -223.840,  1.01000,  0,  2419.92,  0.00000,  0.34260,  0.00000,  0.00000,  1.00000,  1,  100.0,  2016.60,  604.980
6006,  '1',  153.360,  32.874,  108.420,  -23.640,  1.04000,  0,  255.600,  0.00000,  0.18770,  0.00000,  0.00000,  1.00000,  1,  100.0,  213.000,  63.900
6007,  '1',  426.000,  53.786,  216.830,  -47.290,  1.04000,  0,  511.200,  0.00000,  0.13420,  0.00000,  0.00000,  1.00000,  1,  100.0,  426.000,  127.800
6008,  '1',  142.800,  29.109,  100.950,  -22.010,  1.04000,  0,  238.000,  0.00000,  0.20160,  0.00000,  0.00000,  1.00000,  1,  100.0,  198.330,  59.500
6009,  '1',  142.800,  18.037,  100.950,  -22.010,  1.04000,  0,  238.000,  0.00000,  0.18430,  0.00000,  0.00000,  1.00000,  1,  100.0,  198.330,  59.500
6010,  '1',  142.800,  24.134,  100.950,  -22.010,  1.04000,  0,  238.000,  0.00000,  0.15620,  0.00000,  0.00000,  1.00000,  1,  100.0,  198.330,  59.500
6042,  '1',  65.533,  17.226,  122.908,  -5.290,  1.04000,  0,  129.600,  0.00000,  0.18770,  0.00000,  0.00000,  1.00000,  1,  100.0,  320.200,  0.000
6048,  '1',  0.000,  0.000,  1.730,  -0.380,  1.04000,  0,  4.080,  0.00000,  0.11720,  0.00000,  0.00000,  1.00000,  0,  100.0,  3.400,  1.020
6049,  '1',  0.000,  4.890,  4.890,  -1.070,  1.04000,  0,  11.520,  0.00000,  0.18260,  0.00000,  0.00000,  1.00000,  0,  100.0,  9.600,  2.880
6050,  '1',  0.000,  0.000,  2.240,  -0.490,  1.04000,  0,  5.280,  0.00000,  0.36280,  0.00000,  0.00000,  1.00000,  0,  100.0,  4.400,  1.320
6052,  '1',  0.000,  29.220,  29.220,  -6.370,  1.04000,  0,  68.880,  0.00000,  0.12090,  0.00000,  0.00000,  1.00000,  0,  100.0,  57.400,  17.220
6069,  '1',  130.590,  9.773,  92.320,  -20.130,  1.03000,  0,  217.640,  0.00000,  0.22480,  0.00000,  0.00000,  1.00000,  1,  100.0,  181.370,  54.410
6070,  '1',  130.590,  5.067,  92.320,  -20.130,  1.03000,  0,  217.640,  0.00000,  0.24660,  0.00000,  0.00000,  1.00000,  1,  100.0,  181.370,  54.410
6071,  '1',  130.590,  13.217,  92.320,  -20.130,  1.03000,  0,  217.640,  0.00000,  0.15280,  0.00000,  0.00000,  1.00000,  1,  100.0,  181.370,  54.410
6072,  '1',  130.590,  6.202,  92.320,  -20.130,  1.03000,  0,  217.640,  0.00000,  0.19250,  0.00000,  0.00000,  1.00000,  1,  100.0,  181.370,  54.410
6073,  '1',  130.590,  7.670,  92.320,  -20.130,  1.03000,  0,  217.640,  0.00000,  0.14260,  0.00000,  0.00000,  1.00000,  1,  100.0,  181.370,  54.410
6074,  '1',  130.590,  6.899,  92.320,  -20.130,  1.03000,  0,  217.640,  0.00000,  0.11150,  0.00000,  0.00000,  1.00000,  1,  100.0,  181.370,  54.410
6078,  '1',  169.000,  -32.739,  262.510,  -68.730,  1.00000,  0,  676.000,  0.00000,  0.28900,  0.00000,  0.00000,  1.00000,  1,  100.0,  563.330,  169.000
6079,  '1',  169.000,  -68.597,  262.510,  -68.730,  1.00000,  0,  676.000,  0.00000,  0.25330,  0.00000,  0.00000,  1.00000,  1,  100.0,  563.330,  169.000
6080,  '1',  169.000,  -51.230,  262.510,  -68.730,  1.00000,  0,  676.000,  0.00000,  0.32510,  0.00000,  0.00000,  1.00000,  1,  100.0,  563.330,  169.000
6085,  '1',  0.000,  0.000,  0.000,  0.000,  1.04000,  0,  1.680,  0.00000,  1.00000,  0.00000,  0.00000,  1.00000,  0,  100.0,  1.400,  0.420
6086,  '1',  0.000,  0.000,  0.000,  0.000,  1.04000,  0,  36.000,  0.00000,  1.00000,  0.00000,  0.00000,  1.00000,  0,  100.0,  30.000,  9.000
6087,  '1',  0.000,  0.000,  0.000,  0.000,  1.04000,  0,  6.600,  0.00000,  1.00000,  0.00000,  0.00000,  1.00000,  0,  100.0,  5.500,  1.650
6088,  '1',  0.000,  0.000,  0.000,  0.000,  1.04000,  0,  12.720,  0.00000,  1.00000,  0.00000,  0.00000,  1.00000,  0,  100.0,  10.600,  3.180
6089,  '1',  0.000,  0.000,  0.000,  0.000,  1.04000,  0,  16.680,  0.00000,  1.00000,  0.00000,  0.00000,  1.00000,  0,  100.0,  13.900,  4.170
6090,  '1',  0.000,  0.000,  0.000,  0.000,  1.04000,  0,  48.840,  0.00000,  1.00000,  0.00000,  0.00000,  1.00000,  0,  100.0,  40.700,  12.210
6104,  '1',  0.000,  30.790,  30.790,  -6.720,  1.04000,  0,  72.600,  0.00000,  0.21100,  0.00000,  0.00000,  1.00000,  0,  100.0,  60.500,  18.150
6105,  '1',  0.000,  30.790,  30.790,  -6.720,  1.04000,  0,  72.600,  0.00000,  0.31280,  0.00000,  0.00000,  1.00000,  0,  100.0,  60.500,  18.150
6106,  '1',  70.180,  61.590,  61.590,  -13.430,  1.04000,  0,  145.200,  0.00000,  0.12010,  0.00000,  0.00000,  1.00000,  1,  100.0,  121.000,  36.300
...
 0 /End of Generator data, Begin Branch data
1004,  1023,  '99',  0.01132,  0.34543,  0.00000,  0.00,  0.00,  0.00,  0.00000,  0.000,  0.00000,  0.00000,  0.00000,  0.00000,  1
1004,  1057,  '99',  0.63886,  4.12415,  0.00000,  0.00,  0.00,  0.00,  0.00000,  0.000,  0.00000,  0.00000,  0.00000,  0.00000,  1
1004,  2019,  '99',  0.12440,  1.18298,  0.00000,  0.00,  0.00,  0.00,  0.00000,  0.000,  0.00000,  0.00000,  0.00000,  0.00000,  1
1004,  2062,  '99',  0.91198,  4.41498,  0.00000,  0.00,  0.00,  0.00,  0.00000,  0.000,  0.00000,  0.00000,  0.00000,  0.00000,  1
1004,  2100,  '99',  0.05226,  0.64284,  0.00000,  0.00,  0.00,  0.00,  0.00000,  0.000,  0.00000,  0.00000,  0.00000,  0.00000,  1
1004,  2127,  '99',  0.18019,  1.02450,  0.00000,  0.00,  0.00,  0.00,  0.00000,  0.000,  0.00000,  0.00000,  0.00000,  0.00000,  1
1004,  3034,  '99',  0.36438,  2.72658,  0.00000,  0.00,  0.00,  0.00,  0.00000,  0.000,  0.00000,  0.00000,  0.00000,  0.00000,  1
1004,  3039,  '99',  0.03267,  0.33543,  0.00000,  0.00,  0.00,  0.00,  0.00000,  0.000,  0.00000,  0.00000,  0.00000,  0.00000,  1
1004,  3048,  '99',  0.04523,  0.33762,  0.00000,  0.00,  0.00,  0.00,  0.00000,  0.000,  0.00000,  0.00000,  0.00000,  0.00000,  1
1004,  3081,  '99',  0.04012,  0.42614,  0.00000,  0.00,  0.00,  0.00,  0.00000,  0.000,  0.00000,  0.00000,  0.00000,  0.00000,  1
1004,  3087,  '99',  0.40264,  3.13874,  0.00000,  0.00,  0.00,  0.00,  0.00000,  0.000,  0.00000,  0.00000,  0.00000,  0.00000,  1
1004,  3098,  '99',  0.03023,  0.47004,  0.00000,  0.00,  0.00,  0.00,  0.00000,  0.000,  0.00000,  0.00000,  0.00000,  0.00000,  1
1004,  3110,  '99',  0.06266,  0.51361,  0.00000,  0.00,  0.00,  0.00,  0.00000,  0.000,  0.00000,  0.00000,  0.00000,  0.00000,  1
1004,  3118,  '99',  0.21389,  2.05819,  0.00000,  0.00,  0.00,  0.00,  0.00000,  0.000,  0.00000,  0.00000,  0.00000,  0.00000,  1
1004,  3127,  '99',  1.12775,  4.69114,  0.00000,  0.00,  0.00,  0.00,  0.00000,  0.000,  0.00000,  0.00000,  0.00000,  0.00000,  1
1004,  3129,  '99',  1.17982,  3.79132,  0.00000,  0.00,  0.00,  0.00,  0.00000,  0.000,  0.00000,  0.00000,  0.00000,  0.00000,  1
1009,  1012,  '99',  0.32255,  2.51372,  0.00000,  0.00,  0.00,  0.00,  0.00000,  0.000,  0.00000,  0.00000,  0.00000,  0.00000,  1
1009,  1033,  '99',  0.08059,  0.72094,  0.00000,  0.00,  0.00,  0.00,  0.00000,  0.000,  0.00000,  0.00000,  0.00000,  0.00000,  1
1009,  1039,  '99',  1.28383,  4.42373,  0.00000,  0.00,  0.00,  0.00,  0.00000,  0.000,  0.00000,  0.00000,  0.00000,  0.00000,  1
1009,  1046,  '99',  0.20361,  1.75000,  0.00000,  0.00,  0.00,  0.00,  0.00000,  0.000,  0.00000,  0.00000,  0.00000,  0.00000,  1
1009,  1070,  '99',  -0.01003,  0.43537,  0.00000,  0.00,  0.00,  0.00,  0.00000,  0.000,  0.00000,  0.00000,  0.00000,  0.00000,  1
1009,  1082,  '99',  0.10612,  0.48872,  0.00000,  0.00,  0.00,  0.00,  0.00000,  0.000,  0.00000,  0.00000,  0.00000,  0.00000,  1
1012,  1046,  '99',  0.16964,  0.61097,  0.00000,  0.00,  0.00,  0.00,  0.00000,  0.000,  0.00000,  0.00000,  0.00000,  0.00000,  1
1012,  1070,  '99',  0.10744,  1.15424,  0.00000,  0.00,  0.00,  0.00,  0.00000,  0.000,  0.00000,  0.00000,  0.00000,  0.00000,  1
1012,  1082,  '99',  0.44315,  1.45738,  0.00000,  0.00,  0.00,  0.00,  0.00000,  0.000,  0.00000,  0.00000,  0.00000,  0.00000,  1
1012,  -3051,  '1',  0.05710,  0.24977,  0.03804,  149.00,  0.00,  0.00,  0.00000,  0.000,  0.00000,  0.00000,  0.00000,  0.00000,  1
1021,  1026,  '99',  0.01964,  0.79684,  0.00000,  0.00,  0.00,  0.00,  0.00000,  0.000,  0.00000,  0.00000,  0.00000,  0.00000,  1
1021,  1035,  '99',  0.62195,  3.72044,  0.00000,  0.00,  0.00,  0.00,  0.00000,  0.000,  0.00000,  0.00000,  0.00000,  0.00000,  1
1021,  1042,  '99',  0.55814,  3.86295,  0.00000,  0.00,  0.00,  0.00,  0.00000,  0.000,  0.00000,  0.00000,  0.00000,  0.00000,  1
1021,  1084,  '99',  0.01305,  0.19117,  0.00000,  0.00,  0.00,  0.00,  0.00000,  0.000,  0.00000,  0.00000,  0.00000,  0.00000,  1
1021,  3019,  '99',  0.08888,  2.89188,  0.00000,  0.00,  0.00,  0.00,  0.00000,  0.000,  0.00000,  0.00000,  0.00000,  0.00000,  1
1021,  3048,  '99',  0.39968,  3.50052,  0.00000,  0.00,  0.00,  0.00,  0.00000,  0.000,  0.00000,  0.00000,  0.00000,  0.00000,  1
1021,  3062,  '99',  -0.10705,  4.89929,  0.00000,  0.00,  0.00,  0.00,  0.00000,  0.000,  0.00000,  0.00000,  0.00000,  0.00000,  1
1021,  3141,  '99',  1.13776,  4.07302,  0.00000,  0.00,  0.00,  0.00,  0.00000,  0.000,  0.00000,  0.00000,  0.00000,  0.00000,  1
1023,  2100,  '99',  0.09444,  4.32517,  0.00000,  0.00,  0.00,  0.00,  0.00000,  0.000,  0.00000,  0.00000,  0.00000,  0.00000,  1
1023,  3098,  '99',  0.01742,  3.10249,  0.00000,  0.00,  0.00,  0.00,  0.00000,  0.000,  0.00000,  0.00000,  0.00000,  0.00000,  1
1023,  3110,  '99',  0.08549,  0.92649,  0.00000,  0.00,  0.00,  0.00,  0.00000,  0.000,  0.00000,  0.00000,  0.00000,  0.00000,  1
1026,  1035,  '99',  0.41465,  2.70581,  0.00000,  0.00,  0.00,  0.00,  0.00000,  0.000,  0.00000,  0.00000,  0.00000,  0.00000,  1
1026,  1042,  '99',  0.36778,  2.81468,  0.00000,  0.00,  0.00,  0.00,  0.00000,  0.000,  0.00000,  0.00000,  0.00000,  0.00000,  1
1026,  1057,  '99',  0.14530,  4.84869,  0.00000,  0.00,  0.00,  0.00,  0.00000,  0.000,  0.00000,  0.00000,  0.00000,  0.00000,  1
1026,  1066,  '99',  0.53817,  3.76047,  0.00000,  0.00,  0.00,  0.00,  0.00000,  0.000,  0.00000,  0.00000,  0.00000,  0.00000,  1
1026,  1084,  '99',  0.07420,  0.47446,  0.00000,  0.00,  0.00,  0.00,  0.00000,  0.000,  0.00000,  0.00000,  0.00000,  0.00000,  1
1033,  1035,  '99',  -0.17773,  2.71661,  0.00000,  0.00,  0.00,  0.00,  0.00000,  0.000,  0.00000,  0.00000,  0.00000,  0.00000,  1
1033,  1039,  '99',  0.06624,  0.83652,  0.00000,  0.00,  0.00,  0.00,  0.00000,  0.000,  0.00000,  0.00000,  0.00000,  0.00000,  1
1033,  1046,  '99',  1.33841,  4.41309,  0.00000,  0.00,  0.00,  0.00,  0.00000,  0.000,  0.00000,  0.00000,  0.00000,  0.00000,  1
1033,  1070,  '99',  0.17666,  1.12613,  0.00000,  0.00,  0.00,  0.00,  0.00000,  0.000,  0.00000,  0.00000,  0.00000,  0.00000,  1
1033,  1081,  '99',  0.00300,  0.03099,  0.00000,  0.00,  0.00,  0.00,  0.00000,  0.000,  0.00000,  0.00000,  0.00000,  0.00000,  1
1033,  1082,  '99',  0.10835,  0.36295,  0.00000,  0.00,  0.00,  0.00,  0.00000,  0.000,  0.00000,  0.00000,  0.00000,  0.00000,  1
1033,  3050,  '1',  0.01390,  0.13600,  0.26200,  647.00,  0.00,  0.00,  0.00000,  0.000,  0.00000,  0.00000,  0.00000,  0.00000,  1
1035,  1042,  '99',  0.00872,  0.62897,  0.00000,  0.00,  0.00,  0.00,  0.00000,  0.000,  0.00000,  0.00000,  0.00000,  0.00000,  1
1035,  1057,  '99',  0.10638,  2.11985,  0.00000,  0.00,  0.00,  0.00,  0.00000,  0.000,  0.00000,  0.00000,  0.00000,  0.00000,  1
1035,  1066,  '99',  0.03366,  0.88689,  0.00000,  0.00,  0.00,  0.00,  0.00000,  0.000,  0.00000,  0.00000,  0.00000,  0.00000,  1
1035,  1084,  '99',  0.62900,  2.03703,  0.00000,  0.00,  0.00,  0.00,  0.00000,  0.000,  0.00000,  0.00000,  0.00000,  0.00000,  1
1039,  1048,  '99',  0.06617,  3.10586,  0.00000,  0.00,  0.00,  0.00,  0.00000,  0.000,  0.00000,  0.00000,  0.00000,  0.00000,  1
1039,  1053,  '99',  -0.01451,  4.15699,  0.00000,  0.00,  0.00,  0.00,  0.00000,  0.000,  0.00000,  0.00000,  0.00000,  0.00000,  1
1039,  1082,  '99',  0.01276,  0.17146,  0.00000,  0.00,  0.00,  0.00,  0.00000,  0.000,  0.00000,  0.00000,  0.00000,  0.00000,  1
1042,  1057,  '99',  -0.00176,  1.61781,  0.00000,  0.00,  0.00,  0.00,  0.00000,  0.000,  0.00000,  0.00000,  0.00000,  0.00000,  1
1042,  1066,  '99',  -0.01326,  0.55819,  0.00000,  0.00,  0.00,  0.00,  0.00000,  0.000,  0.00000,  0.00000,  0.00000,  0.00000,  1
1042,  1084,  '99',  0.58734,  2.07228,  0.00000,  0.00,  0.00,  0.00,  0.00000,  0.000,  0.00000,  0.00000,  0.00000,  0.00000,  1
1046,  1070,  '99',  0.06522,  0.80322,  0.00000,  0.00,  0.00,  0.00,  0.00000,  0.000,  0.00000,  0.00000,  0.00000,  0.00000,  1
1046,  1082,  '99',  0.29610,  1.01670,  0.00000,  0.00,  0.00,  0.00,  0.00000,  0.000,  0.00000,  0.00000,  0.00000,  0.00000,  1
1046,  3009,  '1',  0.05654,  0.23454,  0.03980,  149.00,  0.00,  0.00,  0.00000,  0.000,  0.00000,  0.00000,  0.00000,  0.00000,  1
1048,  1049,  '99',  0.00182,  0.34074,  0.00000,  0.00,  0.00,  0.00,  0.00000,  0.000,  0.00000,  0.00000,  0.00000,  0.00000,  1
1048,  1053,  '99',  0.00205,  0.25472,  0.00000,  0.00,  0.00,  0.00,  0.00000,  0.000,  0.00000,  0.00000,  0.00000,  0.00000,  1
1048,  1076,  '99',  0.43291,  2.87157,  0.00000,  0.00,  0.00,  0.00,  0.00000,  0.000,  0.00000,  0.00000,  0.00000,  0.00000,  1
1048,  1081,  '99',  0.56961,  3.85541,  0.00000,  0.00,  0.00,  0.00,  0.00000,  0.000,  0.00000,  0.00000,  0.00000,  0.00000,  1
1048,  1082,  '99',  0.40600,  1.76594,  0.00000,  0.00,  0.00,  0.00,  0.00000,  0.000,  0.00000,  0.00000,  0.00000,  0.00000,  1
1048,  3048,  '99',  0.42015,  3.04344,  0.00000,  0.00,  0.00,  0.00,  0.00000,  0.000,  0.00000,  0.00000,  0.00000,  0.00000,  1
1049,  1053,  '99',  -0.00887,  0.45588,  0.00000,  0.00,  0.00,  0.00,  0.00000,  0.000,  0.00000,  0.00000,  0.00000,  0.00000,  1
1049,  1082,  '99',  0.63961,  3.17980,  0.00000,  0.00,  0.00,  0.00,  0.00000,  0.000,  0.00000,  0.00000,  0.00000,  0.00000,  1
1053,  1076,  '99',  0.48386,  3.85574,  0.00000,  0.00,  0.00,  0.00,  0.00000,  0.000,  0.00000,  0.00000,  0.00000,  0.00000,  1
1053,  1081,  '99',  0.00299,  0.02983,  0.00000,  0.00,  0.00,  0.00,  0.00000,  0.000,  0.00000,  0.00000,  0.00000,  0.00000,  1
1053,  1082,  '99',  0.48454,  2.37582,  0.00000,  0.00,  0.00,  0.00,  0.00000,  0.000,  0.00000,  0.00000,  0.00000,  0.00000,  1
1053,  3048,  '99',  0.46109,  4.08523,  0.00000,  0.00,  0.00,  0.00,  0.00000,  0.000,  0.00000,  0.00000,  0.00000,  0.00000,  1
1057,  1066,  '99',  -0.01870,  1.41883,  0.00000,  0.00,  0.00,  0.00,  0.00000,  0.000,  0.00000,  0.00000,  0.00000,  0.00000,  1
1057,  1076,  '99',  0.17470,  3.12541,  0.00000,  0.00,  0.00,  0.00,  0.00000,  0.000,  0.00000,  0.00000,  0.00000,  0.00000,  1
...